modelo_bdgd2opendss/sub__5001462/5001992/SegmentosBT_2023056072_5001992_------1-----.dss
New "Line.SBT_52876481" phases=4 bus1="80450905562721.1.2.3.4" bus2="80450845562721.1.2.3.4" linecode="13-71B_4" length=0.026544000 units=km
New "Line.SBT_52876487" phases=4 bus1="80450205270874.1.2.3.4" bus2="80450195270874.1.2.3.4" linecode="60-71B_4" length=0.024058000 units=km
New "Line.SBT_52876490" phases=4 bus1="80450235270874.1.2.3.4" bus2="80450225270874.1.2.3.4" linecode="60-71B_4" length=0.019265000 units=km
New "Line.SBT_52876491" phases=4 bus1="80450245270874.1.2.3.4" bus2="80450195270874.1.2.3.4" linecode="13-71B_4" length=0.026996000 units=km
New "Line.SBT_52876494" phases=4 bus1="80450275562721.1.2.3.4" bus2="80450265562721.1.2.3.4" linecode="13-71B_4" length=0.039706000 units=km
New "Line.SBT_52876496" phases=4 bus1="80450295562721.1.2.3.4" bus2="80450285562721.1.2.3.4" linecode="60-71B_4" length=0.024494000 units=km
New "Line.SBT_52876549" phases=4 bus1="80450015270879.1.2.3.4" bus2="80450005270879.1.2.3.4" linecode="13-71B_4" length=0.034214000 units=km
New "Line.SBT_52876556" phases=4 bus1="80450165270879.1.2.3.4" bus2="80450045270879.1.2.3.4" linecode="13-71B_4" length=0.033516000 units=km



New "Line.SBT_52876944" phases=4 bus1="80453585679403.1.2.3.4" bus2="80453575679403.1.2.3.4" linecode="60-71B_4" length=0.019452000 units=km
New "Line.SBT_52876947" phases=4 bus1="80453605679403.1.2.3.4" bus2="80453595679403.1.2.3.4" linecode="60-71B_4" length=0.030092000 units=km
New "Line.SBT_52876949" phases=4 bus1="80453625679403.1.2.3.4" bus2="80453615679403.1.2.3.4" linecode="27-44B_4" length=0.009550000 units=km
New "Line.SBT_52876950" phases=4 bus1="80453635679403.1.2.3.4" bus2="80453395679403.1.2.3.4" linecode="27-44B_4" length=0.028647000 units=km
New "Line.SBT_52876953" phases=4 bus1="80453665679403.1.2.3.4" bus2="80453655679403.1.2.3.4" linecode="27-44B_4" length=0.026838000 units=km
New "Line.SBT_52876967" phases=4 bus1="80453855270965.1.2.3.4" bus2="80453865270965.1.2.3.4" linecode="60-71B_4" length=0.038409000 units=km
New "Line.SBT_52876968" phases=4 bus1="80453865270965.1.2.3.4" bus2="80453875270965.1.2.3.4" linecode="60-71B_4" length=0.035422000 units=km
New "Line.SBT_52876973" phases=4 bus1="80453905270965.1.2.3.4" bus2="80453915270965.1.2.3.4" linecode="13-71B_4" length=0.041540000 units=km
New "Line.SBT_52876978" phases=4 bus1="80453795270966.1.2.3.4" bus2="80453785270966.1.2.3.4" linecode="60-71B_4" length=0.035678000 units=km
New "Line.SBT_52876990" phases=4 bus1="80454045270966.1.2.3.4" bus2="80453235270966.1.2.3.4" linecode="60-71B_4" length=0.042018000 units=km
New "Line.SBT_52876992" phases=4 bus1="80453785270966.1.2.3.4" bus2="80454055270966.1.2.3.4" linecode="60-71B_4" length=0.031369000 units=km
New "Line.SBT_52876995" phases=4 bus1="80454105270966.1.2.3.4" bus2="80454115270966.1.2.3.4" linecode="13-71B_4" length=0.044263000 units=km
New "Line.SBT_52876996" phases=4 bus1="80454115270966.1.2.3.4" bus2="94205865270966.1.2.3.4" linecode="46-44B_4" length=0.009399000 units=km
New "Line.SBT_52876998" phases=4 bus1="80454095270966.1.2.3.4" bus2="80454085270966.1.2.3.4" linecode="13-71B_4" length=0.038422000 units=km
New "Line.SBT_52877290" phases=4 bus1="80461185270939.1.2.3.4" bus2="80461195270939.1.2.3.4" linecode="5-71B_4" length=0.032011000 units=km
New "Line.SBT_52877292" phases=4 bus1="80461795270939.1.2.3.4" bus2="80461805270939.1.2.3.4" linecode="43-71B_4" length=0.035496000 units=km
New "Line.SBT_52877293" phases=2 bus1="80461805270939.3.4" bus2="80461825270939.3.4" linecode="5-71B_2" length=0.053397000 units=km
New "Line.SBT_52877294" phases=4 bus1="80461785270939.1.2.3.4" bus2="80466045270939.1.2.3.4" linecode="43-71B_4" length=0.025317000 units=km
New "Line.SBT_52877296" phases=4 bus1="80466045270939.1.2.3.4" bus2="80461185270939.1.2.3.4" linecode="60-71B_4" length=0.021561000 units=km
New "Line.SBT_52877298" phases=4 bus1="80463085270940.1.2.3.4" bus2="80463075270940.1.2.3.4" linecode="13-71B_4" length=0.015781000 units=km
New "Line.SBT_52877303" phases=4 bus1="80463125270940.1.2.3.4" bus2="80463115270940.1.2.3.4" linecode="13-71B_4" length=0.021230000 units=km
New "Line.SBT_52877304" phases=4 bus1="80463135270940.1.2.3.4" bus2="80463125270940.1.2.3.4" linecode="13-71B_4" length=0.020367000 units=km
New "Line.SBT_52877308" phases=4 bus1="80463165270941.1.2.3.4" bus2="80463175270941.1.2.3.4" linecode="13-71B_4" length=0.045039000 units=km
New "Line.SBT_52877309" phases=4 bus1="80463175270941.1.2.3.4" bus2="80463185270941.1.2.3.4" linecode="13-71B_4" length=0.033726000 units=km
New "Line.SBT_52877319" phases=4 bus1="80460245270944.1.2.3.4" bus2="80460275270944.1.2.3.4" linecode="43-71B_4" length=0.036759000 units=km
New "Line.SBT_52877322" phases=4 bus1="80462665270944.1.2.3.4" bus2="80462655270944.1.2.3.4" linecode="60-71B_4" length=0.025645000 units=km
New "Line.SBT_52877330" phases=4 bus1="80462735270944.1.2.3.4" bus2="80460015270944.1.2.3.4" linecode="60-71B_4" length=0.036655000 units=km
New "Line.SBT_52877335" phases=4 bus1="80462725270944.1.2.3.4" bus2="80462805270944.1.2.3.4" linecode="60-71B_4" length=0.012430000 units=km
New "Line.SBT_52877336" phases=4 bus1="80462805270944.1.2.3.4" bus2="80462795270944.1.2.3.4" linecode="60-71B_4" length=0.017788000 units=km
New "Line.SBT_52877339" phases=4 bus1="80462765270944.1.2.3.4" bus2="80462745270944.1.2.3.4" linecode="60-71B_4" length=0.018799000 units=km
New "Line.SBT_52877342" phases=4 bus1="80460155270945.1.2.3.4" bus2="80460165270945.1.2.3.4" linecode="60-71B_4" length=0.047041000 units=km
New "Line.SBT_52877343" phases=4 bus1="80460155270945.1.2.3.4" bus2="80460175270945.1.2.3.4" linecode="60-71B_4" length=0.013980000 units=km
New "Line.SBT_52877346" phases=4 bus1="80460195270945.1.2.3.4" bus2="80460205270945.1.2.3.4" linecode="60-71B_4" length=0.031164000 units=km
New "Line.SBT_52877350" phases=4 bus1="80460325270945.1.2.3.4" bus2="80460335270945.1.2.3.4" linecode="13-71B_4" length=0.040517000 units=km
New "Line.SBT_52877357" phases=4 bus1="80460395270945.1.2.3.4" bus2="80460385270945.1.2.3.4" linecode="60-71B_4" length=0.027628000 units=km
New "Line.SBT_52877358" phases=4 bus1="80460405270945.1.2.3.4" bus2="80460395270945.1.2.3.4" linecode="60-71B_4" length=0.013133000 units=km
New "Line.SBT_52877359" phases=4 bus1="80460165270945.1.2.3.4" bus2="80460405270945.1.2.3.4" linecode="60-71B_4" length=0.033600000 units=km
New "Line.SBT_52877361" phases=4 bus1="80461085270945.1.2.3.4" bus2="80461095270945.1.2.3.4" linecode="60-71B_4" length=0.033545000 units=km
New "Line.SBT_52877479" phases=4 bus1="80464365270925.1.2.3.4" bus2="95207205270925.1.2.3.4" linecode="45-44B_4" length=0.031499000 units=km
New "Line.SBT_52877491" phases=4 bus1="80464285270925.1.2.3.4" bus2="80464835270925.1.2.3.4" linecode="60-71B_4" length=0.019837000 units=km
New "Line.SBT_52877494" phases=4 bus1="80464575270926.1.2.3.4" bus2="80464565270926.1.2.3.4" linecode="60-71B_4" length=0.037014000 units=km
New "Line.SBT_52877495" phases=4 bus1="80464575270926.1.2.3.4" bus2="80464585270926.1.2.3.4" linecode="13-71B_4" length=0.021570000 units=km
New "Line.SBT_52877499" phases=4 bus1="80450955270927.1.2.3.4" bus2="80451015270927.1.2.3.4" linecode="26-44B_4" length=0.010123000 units=km
New "Line.SBT_52877500" phases=4 bus1="80464205270927.1.2.3.4" bus2="80466075270927.1.2.3.4" linecode="26-44B_4" length=0.036734000 units=km
New "Line.SBT_52877503" phases=4 bus1="80466085270927.1.2.3.4" bus2="80464255270927.1.2.3.4" linecode="26-44B_4" length=0.031023000 units=km
New "Line.SBT_52877531" phases=4 bus1="80464845270925.1.2.3.4" bus2="80464855270925.1.2.3.4" linecode="60-71B_4" length=0.021061000 units=km
New "Line.SBT_52877533" phases=4 bus1="80464865270925.1.2.3.4" bus2="80464835270925.1.2.3.4" linecode="60-71B_4" length=0.036938000 units=km
New "Line.SBT_52877534" phases=4 bus1="80464835270925.1.2.3.4" bus2="80464875270925.1.2.3.4" linecode="60-71B_4" length=0.031095000 units=km
New "Line.SBT_52877537" phases=4 bus1="80464425270925.1.2.3.4" bus2="80464395270925.1.2.3.4" linecode="60-71B_4" length=0.023920000 units=km
New "Line.SBT_52877541" phases=4 bus1="80464565270926.1.2.3.4" bus2="80464555270926.1.2.3.4" linecode="60-71B_4" length=0.022865000 units=km
New "Line.SBT_52877549" phases=4 bus1="80451005270927.1.2.3.4" bus2="80464805270927.1.2.3.4" linecode="26-44B_4" length=0.035607000 units=km
New "Line.SBT_52877551" phases=4 bus1="80464175270927.1.2.3.4" bus2="80464825270927.1.2.3.4" linecode="46-44B_4" length=0.030106000 units=km
New "Line.SBT_52877552" phases=4 bus1="80464185270927.1.2.3.4" bus2="80464175270927.1.2.3.4" linecode="46-44B_4" length=0.039282000 units=km
New "Line.SBT_52877561" phases=4 bus1="80464985270928.1.2.3.4" bus2="80464965270928.1.2.3.4" linecode="45-44B_4" length=0.035330000 units=km
New "Line.SBT_52877562" phases=4 bus1="80464995270928.1.2.3.4" bus2="80464985270928.1.2.3.4" linecode="45-44B_4" length=0.033950000 units=km
New "Line.SBT_52877563" phases=4 bus1="80465005270928.1.2.3.4" bus2="80464995270928.1.2.3.4" linecode="60-71B_4" length=0.036217000 units=km
New "Line.SBT_52877564" phases=4 bus1="80465015270928.1.2.3.4" bus2="80465005270928.1.2.3.4" linecode="60-71B_4" length=0.034251000 units=km
New "Line.SBT_52877565" phases=4 bus1="80465025270928.1.2.3.4" bus2="80465015270928.1.2.3.4" linecode="60-71B_4" length=0.034379000 units=km
New "Line.SBT_52877567" phases=4 bus1="80465045270928.1.2.3.4" bus2="80465035270928.1.2.3.4" linecode="60-71B_4" length=0.032065000 units=km
New "Line.SBT_52877580" phases=4 bus1="80464495270929.1.2.3.4" bus2="80464485270929.1.2.3.4" linecode="26-44B_4" length=0.014533000 units=km
New "Line.SBT_52877582" phases=4 bus1="80464525270929.1.2.3.4" bus2="80464515270929.1.2.3.4" linecode="26-44B_4" length=0.012356000 units=km
New "Line.SBT_52877587" phases=4 bus1="80464615270929.1.2.3.4" bus2="80464605270929.1.2.3.4" linecode="26-44B_4" length=0.031567000 units=km
New "Line.SBT_52877588" phases=4 bus1="80464515270929.1.2.3.4" bus2="80464615270929.1.2.3.4" linecode="26-44B_4" length=0.030642000 units=km
New "Line.SBT_52877591" phases=4 bus1="80464735270929.1.2.3.4" bus2="80464765270929.1.2.3.4" linecode="26-44B_4" length=0.008677000 units=km
New "Line.SBT_52877592" phases=4 bus1="80464635270929.1.2.3.4" bus2="80464755270929.1.2.3.4" linecode="26-44B_4" length=0.016926000 units=km
New "Line.SBT_52877594" phases=4 bus1="80464795270929.1.2.3.4" bus2="80464785270929.1.2.3.4" linecode="46-44B_4" length=0.029246000 units=km
New "Line.SBT_52877638" phases=4 bus1="80464215270927.1.2.3.4" bus2="80464195270927.1.2.3.4" linecode="46-44B_4" length=0.054900000 units=km
New "Line.SBT_52877640" phases=4 bus1="80451015270927.1.2.3.4" bus2="80450945270927.1.2.3.4" linecode="26-44B_4" length=0.033985000 units=km
New "Line.SBT_52877642" phases=4 bus1="80463455270929.1.2.3.4" bus2="80464905270929.1.2.3.4" linecode="60-71B_4" length=0.026119000 units=km
New "Line.SBT_52877643" phases=4 bus1="80464905270929.1.2.3.4" bus2="80464915270929.1.2.3.4" linecode="60-71B_4" length=0.035444000 units=km
New "Line.SBT_52877644" phases=4 bus1="80464915270929.1.2.3.4" bus2="80464925270929.1.2.3.4" linecode="60-71B_4" length=0.052155000 units=km
New "Line.SBT_52877645" phases=3 bus1="80464925270929.1.2.4" bus2="80463465270929.1.2.4" linecode="60-71B_3" length=0.047875000 units=km
New "Line.SBT_52877653" phases=4 bus1="80464665270929.1.2.3.4" bus2="80464225270929.1.2.3.4" linecode="46-44B_4" length=0.023215000 units=km
New "Line.SBT_52877655" phases=4 bus1="80464685270929.1.2.3.4" bus2="80464655270929.1.2.3.4" linecode="26-44B_4" length=0.018772000 units=km
New "Line.SBT_52877658" phases=4 bus1="80464715270929.1.2.3.4" bus2="80464705270929.1.2.3.4" linecode="26-44B_4" length=0.036652000 units=km
New "Line.SBT_52877660" phases=4 bus1="80464725270929.1.2.3.4" bus2="80464735270929.1.2.3.4" linecode="26-44B_4" length=0.027228000 units=km
New "Line.SBT_52877661" phases=4 bus1="80464765270929.1.2.3.4" bus2="80464755270929.1.2.3.4" linecode="26-44B_4" length=0.016488000 units=km
New "Line.SBT_52877670" phases=4 bus1="80465545270932.1.2.3.4" bus2="89274595270932.1.2.3.4" linecode="13-71B_4" length=0.036434000 units=km
New "Line.SBT_52877671" phases=4 bus1="80465555270932.1.2.3.4" bus2="80465565270932.1.2.3.4" linecode="13-71B_4" length=0.033046000 units=km
New "Line.SBT_52877674" phases=4 bus1="80465595270933.1.2.3.4" bus2="80465585270933.1.2.3.4" linecode="60-71B_4" length=0.012346000 units=km
New "Line.SBT_52877679" phases=4 bus1="80465645270933.1.2.3.4" bus2="80463355270933.1.2.3.4" linecode="60-71B_4" length=0.041224000 units=km
New "Line.SBT_52877683" phases=4 bus1="80463395270928.1.2.3.4" bus2="80463385270928.1.2.3.4" linecode="45-44B_4" length=0.034127000 units=km
New "Line.SBT_52877686" phases=4 bus1="80459855270936.1.2.3.4" bus2="80459865270936.1.2.3.4" linecode="26-44B_4" length=0.027651000 units=km
New "Line.SBT_52877687" phases=4 bus1="80459825270936.1.2.3.4" bus2="80459855270936.1.2.3.4" linecode="26-44B_4" length=0.021649000 units=km
New "Line.SBT_52877692" phases=4 bus1="80459915270936.1.2.3.4" bus2="80459905270936.1.2.3.4" linecode="26-44B_4" length=0.026695000 units=km
New "Line.SBT_52877695" phases=4 bus1="80459935270936.1.2.3.4" bus2="80459755270936.1.2.3.4" linecode="26-44B_4" length=0.036703000 units=km
New "Line.SBT_52877699" phases=4 bus1="80460055315854.1.2.3.4" bus2="80460065315854.1.2.3.4" linecode="46-44B_4" length=0.028275000 units=km
New "Line.SBT_52877700" phases=4 bus1="80460065315854.1.2.3.4" bus2="80460075315854.1.2.3.4" linecode="46-44B_4" length=0.033542000 units=km
New "Line.SBT_52877701" phases=4 bus1="80460075315854.1.2.3.4" bus2="80460085315854.1.2.3.4" linecode="46-44B_4" length=0.028430000 units=km
New "Line.SBT_52877713" phases=4 bus1="80459705270937.1.2.3.4" bus2="80459695270937.1.2.3.4" linecode="60-71B_4" length=0.033386000 units=km
New "Line.SBT_52877720" phases=4 bus1="80462215270937.1.2.3.4" bus2="80462205270937.1.2.3.4" linecode="60-71B_4" length=0.037067000 units=km
New "Line.SBT_52877723" phases=4 bus1="80462245270937.1.2.3.4" bus2="80462235270937.1.2.3.4" linecode="60-71B_4" length=0.027073000 units=km
New "Line.SBT_52877724" phases=4 bus1="80462795270937.1.2.3.4" bus2="80462845270937.1.2.3.4" linecode="60-71B_4" length=0.042856000 units=km
New "Line.SBT_52877728" phases=4 bus1="80462855270937.1.2.3.4" bus2="80462915270937.1.2.3.4" linecode="60-71B_4" length=0.009581000 units=km
New "Line.SBT_52877733" phases=4 bus1="80462895270937.1.2.3.4" bus2="80462955270937.1.2.3.4" linecode="60-71B_4" length=0.020374000 units=km
New "Line.SBT_52877736" phases=4 bus1="80463375270934.1.2.3.4" bus2="80463445270934.1.2.3.4" linecode="46-44B_4" length=0.036083000 units=km
New "Line.SBT_52877743" phases=4 bus1="80459765270936.1.2.3.4" bus2="80459775270936.1.2.3.4" linecode="13-71B_4" length=0.033285000 units=km
New "Line.SBT_52877748" phases=4 bus1="80462925270937.1.2.3.4" bus2="80462985270937.1.2.3.4" linecode="60-71B_4" length=0.036531000 units=km
New "Line.SBT_52877754" phases=4 bus1="80462335270938.1.2.3.4" bus2="80463685270938.1.2.3.4" linecode="60-71B_4" length=0.013794000 units=km
New "Line.SBT_52877757" phases=2 bus1="80463705270938.1.4" bus2="80463695270938.1.4" linecode="60-71B_2" length=0.021691000 units=km
New "Line.SBT_52877760" phases=4 bus1="80462975270938.1.2.3.4" bus2="80462885270938.1.2.3.4" linecode="60-71B_4" length=0.020846000 units=km
New "Line.SBT_52877765" phases=4 bus1="80460285270939.1.2.3.4" bus2="80460295270939.1.2.3.4" linecode="11-71B_4" length=0.014352000 units=km
New "Line.SBT_52877767" phases=4 bus1="80460285270939.1.2.3.4" bus2="80460315270939.1.2.3.4" linecode="9-71B_4" length=0.040594000 units=km
New "Line.SBT_52877771" phases=4 bus1="80462565270939.1.2.3.4" bus2="80462575270939.1.2.3.4" linecode="5-71B_4" length=0.032287000 units=km
New "Line.SBT_52877772" phases=4 bus1="80462595270939.1.2.3.4" bus2="80462585270939.1.2.3.4" linecode="11-71B_4" length=0.032336000 units=km
New "Line.SBT_52877782" phases=4 bus1="80461105270945.1.2.3.4" bus2="80461095270945.1.2.3.4" linecode="60-71B_4" length=0.013757000 units=km
New "Line.SBT_52877789" phases=4 bus1="80461155270945.1.2.3.4" bus2="80460325270945.1.2.3.4" linecode="60-71B_4" length=0.036182000 units=km
New "Line.SBT_52877791" phases=4 bus1="80460435270946.1.2.3.4" bus2="80460425270946.1.2.3.4" linecode="13-71B_4" length=0.031833000 units=km
New "Line.SBT_52877792" phases=4 bus1="80460445270946.1.2.3.4" bus2="80460435270946.1.2.3.4" linecode="13-71B_4" length=0.033991000 units=km
New "Line.SBT_52877793" phases=4 bus1="80460455270946.1.2.3.4" bus2="80460445270946.1.2.3.4" linecode="13-71B_4" length=0.031100000 units=km
New "Line.SBT_52877794" phases=4 bus1="80460525270947.1.2.3.4" bus2="80460495270947.1.2.3.4" linecode="13-71B_4" length=0.028281000 units=km
New "Line.SBT_52877802" phases=4 bus1="80460605270948.1.2.3.4" bus2="80460555270948.1.2.3.4" linecode="60-71B_4" length=0.010841000 units=km
New "Line.SBT_52877804" phases=4 bus1="80460605270948.1.2.3.4" bus2="80460575270948.1.2.3.4" linecode="13-71B_4" length=0.016646000 units=km
New "Line.SBT_52877807" phases=4 bus1="80460585270948.1.2.3.4" bus2="80460615270948.1.2.3.4" linecode="60-71B_4" length=0.034272000 units=km
New "Line.SBT_52877808" phases=4 bus1="80460615270948.1.2.3.4" bus2="80460625270948.1.2.3.4" linecode="60-71B_4" length=0.030785000 units=km
New "Line.SBT_52877809" phases=4 bus1="80460645270948.1.2.3.4" bus2="80460655270948.1.2.3.4" linecode="60-71B_4" length=0.031501000 units=km
New "Line.SBT_52877812" phases=4 bus1="80460635270948.1.2.3.4" bus2="80460645270948.1.2.3.4" linecode="60-71B_4" length=0.049801000 units=km
New "Line.SBT_52877814" phases=4 bus1="80460635270948.1.2.3.4" bus2="80460725270948.1.2.3.4" linecode="13-71B_4" length=0.018406000 units=km
New "Line.SBT_52877815" phases=4 bus1="80460695270949.1.2.3.4" bus2="80460685270949.1.2.3.4" linecode="13-71B_4" length=0.033292000 units=km
New "Line.SBT_52877832" phases=4 bus1="80462265270938.1.2.3.4" bus2="80462255270938.1.2.3.4" linecode="13-71B_4" length=0.045282000 units=km
New "Line.SBT_52877834" phases=4 bus1="80462295270938.1.2.3.4" bus2="80462285270938.1.2.3.4" linecode="13-71B_4" length=0.038977000 units=km
New "Line.SBT_52877838" phases=4 bus1="80462865270938.1.2.3.4" bus2="80462855270938.1.2.3.4" linecode="60-71B_4" length=0.040089000 units=km
New "Line.SBT_52877839" phases=4 bus1="80462875270938.1.2.3.4" bus2="80462865270938.1.2.3.4" linecode="60-71B_4" length=0.038870000 units=km
New "Line.SBT_52877841" phases=4 bus1="80462275270938.1.2.3.4" bus2="80462265270938.1.2.3.4" linecode="60-71B_4" length=0.033749000 units=km
New "Line.SBT_52877852" phases=4 bus1="80460475270947.1.2.3.4" bus2="80460465270947.1.2.3.4" linecode="13-71B_4" length=0.025853000 units=km
New "Line.SBT_52877860" phases=4 bus1="80461295270951.1.2.3.4" bus2="80461285270951.1.2.3.4" linecode="13-71B_4" length=0.037826000 units=km
New "Line.SBT_52877867" phases=4 bus1="80461355270951.1.2.3.4" bus2="80461345270951.1.2.3.4" linecode="60-71B_4" length=0.036153000 units=km
New "Line.SBT_52877875" phases=4 bus1="80461405270951.1.2.3.4" bus2="80461425270951.1.2.3.4" linecode="60-71B_4" length=0.015201000 units=km
New "Line.SBT_52877876" phases=4 bus1="80461425270951.1.2.3.4" bus2="80451145270951.1.2.3.4" linecode="60-71B_4" length=0.034707000 units=km
New "Line.SBT_52877879" phases=4 bus1="80461905270951.1.2.3.4" bus2="80461915270951.1.2.3.4" linecode="60-71B_4" length=0.039767000 units=km
New "Line.SBT_52877880" phases=4 bus1="80461915270951.1.2.3.4" bus2="80451155270951.1.2.3.4" linecode="60-71B_4" length=0.038375000 units=km
New "Line.SBT_52877882" phases=4 bus1="80453025270951.1.2.3.4" bus2="80453015270951.1.2.3.4" linecode="60-71B_4" length=0.036579000 units=km
New "Line.SBT_52877883" phases=4 bus1="80453035270951.1.2.3.4" bus2="80453025270951.1.2.3.4" linecode="60-71B_4" length=0.017887000 units=km
New "Line.SBT_52877884" phases=4 bus1="80453035270951.1.2.3.4" bus2="80453045270951.1.2.3.4" linecode="60-71B_4" length=0.048612000 units=km
New "Line.SBT_52877889" phases=4 bus1="80453945270951.1.2.3.4" bus2="80453055270951.1.2.3.4" linecode="60-71B_4" length=0.042727000 units=km
New "Line.SBT_52877923" phases=4 bus1="80465875270954.1.2.3.4" bus2="80465855270954.1.2.3.4" linecode="60-71B_4" length=0.035304000 units=km
New "Line.SBT_52877928" phases=4 bus1="80461615715773.1.2.3.4" bus2="80461595715773.1.2.3.4" linecode="46-44B_4" length=0.039771000 units=km
New "Line.SBT_52877929" phases=4 bus1="80461625715773.1.2.3.4" bus2="80461615715773.1.2.3.4" linecode="46-44B_4" length=0.038383000 units=km
New "Line.SBT_52877931" phases=4 bus1="80461635270951.1.2.3.4" bus2="80461645270951.1.2.3.4" linecode="60-71B_4" length=0.038894000 units=km
New "Line.SBT_52877934" phases=4 bus1="80461835270951.1.2.3.4" bus2="80461275270951.1.2.3.4" linecode="60-71B_4" length=0.033040000 units=km
New "Line.SBT_52877941" phases=4 bus1="80461205270952.1.2.3.4" bus2="80461775270952.1.2.3.4" linecode="26-44B_4" length=0.021559000 units=km
New "Line.SBT_52877942" phases=4 bus1="80461735270952.1.2.3.4" bus2="80461935270952.1.2.3.4" linecode="26-44B_4" length=0.034780000 units=km
New "Line.SBT_52877943" phases=4 bus1="80461735270952.1.2.3.4" bus2="80461945270952.1.2.3.4" linecode="46-44B_4" length=0.017593000 units=km
New "Line.SBT_52877965" phases=4 bus1="80452875270954.1.2.3.4" bus2="80452885270954.1.2.3.4" linecode="60-71B_4" length=0.032109000 units=km
New "Line.SBT_52877967" phases=4 bus1="80452905270954.1.2.3.4" bus2="80452895270954.1.2.3.4" linecode="13-71B_4" length=0.036712000 units=km
New "Line.SBT_52877969" phases=4 bus1="80452925270954.1.2.3.4" bus2="80452905270954.1.2.3.4" linecode="13-71B_4" length=0.019992000 units=km
New "Line.SBT_52877975" phases=4 bus1="80462405270955.1.2.3.4" bus2="80462415270955.1.2.3.4" linecode="45-44B_4" length=0.009740000 units=km
New "Line.SBT_52877976" phases=4 bus1="80462425270955.1.2.3.4" bus2="80462405270955.1.2.3.4" linecode="45-44B_4" length=0.030092000 units=km
New "Line.SBT_52877979" phases=4 bus1="80462415270955.1.2.3.4" bus2="80462395270955.1.2.3.4" linecode="45-44B_4" length=0.010174000 units=km
New "Line.SBT_52877983" phases=4 bus1="80462435270955.1.2.3.4" bus2="80462455270955.1.2.3.4" linecode="45-44B_4" length=0.026573000 units=km
New "Line.SBT_52877984" phases=4 bus1="80462695270955.1.2.3.4" bus2="80462445270955.1.2.3.4" linecode="45-44B_4" length=0.028704000 units=km
New "Line.SBT_52877985" phases=4 bus1="80462825270955.1.2.3.4" bus2="80462815270955.1.2.3.4" linecode="45-44B_4" length=0.029798000 units=km
New "Line.SBT_52877987" phases=4 bus1="80452955270955.1.2.3.4" bus2="80463315270955.1.2.3.4" linecode="45-44B_4" length=0.023718000 units=km
New "Line.SBT_52877989" phases=4 bus1="80463325270955.1.2.3.4" bus2="80463335270955.1.2.3.4" linecode="45-44B_4" length=0.029083000 units=km
New "Line.SBT_52877992" phases=4 bus1="80462465270956.1.2.3.4" bus2="80462475270956.1.2.3.4" linecode="60-71B_4" length=0.031427000 units=km
New "Line.SBT_52877999" phases=4 bus1="80462495270956.1.2.3.4" bus2="80463275270956.1.2.3.4" linecode="60-71B_4" length=0.025889000 units=km
New "Line.SBT_52878004" phases=4 bus1="80465815270957.1.2.3.4" bus2="87587745270957.1.2.3.4" linecode="45-44B_4" length=0.022019000 units=km
New "Line.SBT_52878005" phases=4 bus1="80465825270957.1.2.3.4" bus2="80465815270957.1.2.3.4" linecode="45-44B_4" length=0.036816000 units=km
New "Line.SBT_52878006" phases=4 bus1="80465835270957.1.2.3.4" bus2="80465825270957.1.2.3.4" linecode="45-44B_4" length=0.033881000 units=km
New "Line.SBT_52878023" phases=4 bus1="80462385270955.1.2.3.4" bus2="80462835270955.1.2.3.4" linecode="45-44B_4" length=0.029994000 units=km
New "Line.SBT_52878024" phases=4 bus1="80462455270955.1.2.3.4" bus2="80463025270955.1.2.3.4" linecode="45-44B_4" length=0.016123000 units=km
New "Line.SBT_52878025" phases=4 bus1="80463025270955.1.2.3.4" bus2="80463035270955.1.2.3.4" linecode="45-44B_4" length=0.019669000 units=km
New "Line.SBT_52878027" phases=4 bus1="80452945270955.1.2.3.4" bus2="80452935270955.1.2.3.4" linecode="46-44B_4" length=0.035141000 units=km
New "Line.SBT_52878028" phases=4 bus1="80452945270955.1.2.3.4" bus2="80452955270955.1.2.3.4" linecode="45-44B_4" length=0.016488000 units=km
New "Line.SBT_52878031" phases=4 bus1="80463035270955.1.2.3.4" bus2="80463285270955.1.2.3.4" linecode="45-44B_4" length=0.031501000 units=km
New "Line.SBT_52878032" phases=4 bus1="80463285270955.1.2.3.4" bus2="80463295270955.1.2.3.4" linecode="45-44B_4" length=0.029084000 units=km
New "Line.SBT_52878034" phases=4 bus1="80462525270956.1.2.3.4" bus2="80462535270956.1.2.3.4" linecode="60-71B_4" length=0.034297000 units=km
New "Line.SBT_52878036" phases=4 bus1="80452795270956.1.2.3.4" bus2="80452785270956.1.2.3.4" linecode="60-71B_4" length=0.017593000 units=km
New "Line.SBT_52878038" phases=4 bus1="80452845270956.1.2.3.4" bus2="80452835270956.1.2.3.4" linecode="60-71B_4" length=0.038709000 units=km
New "Line.SBT_52878039" phases=4 bus1="80462535270956.1.2.3.4" bus2="80452845270956.1.2.3.4" linecode="60-71B_4" length=0.039511000 units=km
New "Line.SBT_52878040" phases=4 bus1="80463225270956.1.2.3.4" bus2="80453005270956.1.2.3.4" linecode="13-71B_4" length=0.023070000 units=km
New "Line.SBT_52878041" phases=4 bus1="80463235270956.1.2.3.4" bus2="80463225270956.1.2.3.4" linecode="60-71B_4" length=0.014206000 units=km
New "Line.SBT_52878533" phases=4 bus1="80466425494206.1.2.3.4" bus2="80466415494206.1.2.3.4" linecode="45-44B_4" length=0.011083000 units=km
New "Line.SBT_52878539" phases=4 bus1="80466485494206.1.2.3.4" bus2="80466435494206.1.2.3.4" linecode="45-44B_4" length=0.035369000 units=km
New "Line.SBT_52878551" phases=4 bus1="80466625494206.1.2.3.4" bus2="80466425494206.1.2.3.4" linecode="46-44B_4" length=0.007403000 units=km
New "Line.SBT_52878578" phases=4 bus1="80467115494206.1.2.3.4" bus2="88403515494206.1.2.3.4" linecode="46-44B_4" length=0.024311000 units=km
New "Line.SBT_52878579" phases=4 bus1="80467125494206.1.2.3.4" bus2="80467115494206.1.2.3.4" linecode="46-44B_4" length=0.030861000 units=km
New "Line.SBT_52878582" phases=4 bus1="80466915494206.1.2.3.4" bus2="86048645494206.1.2.3.4" linecode="46-44B_4" length=0.023888000 units=km
New "Line.SBT_52881361" phases=4 bus1="80488455271417.1.2.3.4" bus2="80490975271417.1.2.3.4" linecode="11-71B_4" length=0.027335000 units=km
New "Line.SBT_52881362" phases=4 bus1="80490975271417.1.2.3.4" bus2="80490985271417.1.2.3.4" linecode="11-71B_4" length=0.031049000 units=km
New "Line.SBT_52881440" phases=4 bus1="79508865271417.1.2.3.4" bus2="80491005271417.1.2.3.4" linecode="13-71B_4" length=0.032560000 units=km
New "Line.SBT_52881441" phases=4 bus1="80491005271417.1.2.3.4" bus2="80491015271417.1.2.3.4" linecode="13-71B_4" length=0.033294000 units=km
New "Line.SBT_52881444" phases=4 bus1="80491035271417.1.2.3.4" bus2="80491045271417.1.2.3.4" linecode="60-71B_4" length=0.009400000 units=km
New "Line.SBT_52881445" phases=4 bus1="80491045271417.1.2.3.4" bus2="80491055271417.1.2.3.4" linecode="13-71B_4" length=0.028762000 units=km
New "Line.SBT_52881482" phases=4 bus1="80485005271419.1.2.3.4" bus2="80484995271419.1.2.3.4" linecode="60-71B_4" length=0.021569000 units=km
New "Line.SBT_52881493" phases=4 bus1="80485365271419.1.2.3.4" bus2="80485375271419.1.2.3.4" linecode="60-71B_4" length=0.039277000 units=km
New "Line.SBT_52881495" phases=4 bus1="80485375271419.1.2.3.4" bus2="80485385271419.1.2.3.4" linecode="60-71B_4" length=0.031294000 units=km
New "Line.SBT_52881496" phases=4 bus1="80485385271419.1.2.3.4" bus2="80485395271419.1.2.3.4" linecode="60-71B_4" length=0.026841000 units=km
New "Line.SBT_52881497" phases=4 bus1="80485395271419.1.2.3.4" bus2="80485035271419.1.2.3.4" linecode="60-71B_4" length=0.010945000 units=km
New "Line.SBT_52881498" phases=4 bus1="80485405271419.1.2.3.4" bus2="80485035271419.1.2.3.4" linecode="60-71B_4" length=0.039227000 units=km
New "Line.SBT_52881500" phases=4 bus1="80485425271419.1.2.3.4" bus2="80485415271419.1.2.3.4" linecode="60-71B_4" length=0.011480000 units=km
New "Line.SBT_52881505" phases=4 bus1="80485455271419.1.2.3.4" bus2="80485465271419.1.2.3.4" linecode="60-71B_4" length=0.026841000 units=km
New "Line.SBT_52881508" phases=4 bus1="80485485271419.1.2.3.4" bus2="80485315271419.1.2.3.4" linecode="60-71B_4" length=0.023774000 units=km
New "Line.SBT_52881509" phases=4 bus1="80466825271419.1.2.3.4" bus2="80466815271419.1.2.3.4" linecode="60-71B_4" length=0.026993000 units=km
New "Line.SBT_52881535" phases=4 bus1="80487515271421.1.2.3.4" bus2="80487525271421.1.2.3.4" linecode="26-44B_4" length=0.028458000 units=km
New "Line.SBT_52881536" phases=4 bus1="80487545271421.1.2.3.4" bus2="80487535271421.1.2.3.4" linecode="26-44B_4" length=0.039373000 units=km
New "Line.SBT_52881537" phases=4 bus1="80489125271421.1.2.3.4" bus2="80487495271421.1.2.3.4" linecode="46-44B_4" length=0.007986000 units=km
New "Line.SBT_52881539" phases=4 bus1="80489145271421.1.2.3.4" bus2="80489135271421.1.2.3.4" linecode="26-44B_4" length=0.004338000 units=km
New "Line.SBT_52881546" phases=4 bus1="80490395271425.1.2.3.4" bus2="80490405271425.1.2.3.4" linecode="45-44B_4" length=0.030403000 units=km
New "Line.SBT_52881547" phases=4 bus1="80490405271425.1.2.3.4" bus2="80490415271425.1.2.3.4" linecode="45-44B_4" length=0.031367000 units=km
...




New "Line.SBT_52876935" phases=4 bus1="80453155270965.1.2.3.4" bus2="80453145270965.1.2.3.4" linecode="27-44B_4" length=0.035108000 units=km
New "Line.SBT_52876936" phases=4 bus1="80453165270965.1.2.3.4" bus2="80453155270965.1.2.3.4" linecode="60-71B_4" length=0.026761000 units=km
New "Line.SBT_52876940" phases=4 bus1="80453205270965.1.2.3.4" bus2="80453185270965.1.2.3.4" linecode="27-44B_4" length=0.035567000 units=km
New "Line.SBT_52876941" phases=4 bus1="80453215270965.1.2.3.4" bus2="80453205270965.1.2.3.4" linecode="11-71B_4" length=0.018798000 units=km
New "Line.SBT_52876952" phases=4 bus1="80453655679403.1.2.3.4" bus2="80453625679403.1.2.3.4" linecode="27-44B_4" length=0.015575000 units=km
New "Line.SBT_52876954" phases=4 bus1="80453685679403.1.2.3.4" bus2="80453665679403.1.2.3.4" linecode="60-71B_4" length=0.010186000 units=km
New "Line.SBT_52876956" phases=4 bus1="80453705679403.1.2.3.4" bus2="80453685679403.1.2.3.4" linecode="27-44B_4" length=0.026113000 units=km
New "Line.SBT_52876957" phases=4 bus1="80453715679403.1.2.3.4" bus2="80453685679403.1.2.3.4" linecode="13-71B_4" length=0.010638000 units=km
New "Line.SBT_52876958" phases=4 bus1="80453725679403.1.2.3.4" bus2="80453715679403.1.2.3.4" linecode="60-71B_4" length=0.025253000 units=km
New "Line.SBT_52876959" phases=4 bus1="80453745679403.1.2.3.4" bus2="80453725679403.1.2.3.4" linecode="60-71B_4" length=0.028133000 units=km
New "Line.SBT_52876960" phases=4 bus1="80453755679403.1.2.3.4" bus2="80453745679403.1.2.3.4" linecode="60-71B_4" length=0.024539000 units=km
New "Line.SBT_52876961" phases=4 bus1="80453765679403.1.2.3.4" bus2="80453755679403.1.2.3.4" linecode="45-44B_4" length=0.033493000 units=km
New "Line.SBT_52876965" phases=4 bus1="80453615679403.1.2.3.4" bus2="80453635679403.1.2.3.4" linecode="27-44B_4" length=0.034632000 units=km
New "Line.SBT_52876966" phases=4 bus1="80453165270965.1.2.3.4" bus2="80453855270965.1.2.3.4" linecode="60-71B_4" length=0.034974000 units=km
New "Line.SBT_52876970" phases=4 bus1="80453885270965.1.2.3.4" bus2="80453895270965.1.2.3.4" linecode="60-71B_4" length=0.031030000 units=km
New "Line.SBT_52876972" phases=4 bus1="80453695679403.1.2.3.4" bus2="80453905679403.1.2.3.4" linecode="13-71B_4" length=0.033752000 units=km
New "Line.SBT_52876974" phases=4 bus1="80453915270965.1.2.3.4" bus2="80453925270965.1.2.3.4" linecode="13-71B_4" length=0.034194000 units=km
New "Line.SBT_52876975" phases=4 bus1="80453925270965.1.2.3.4" bus2="80453195270965.1.2.3.4" linecode="13-71B_4" length=0.043132000 units=km
New "Line.SBT_52876979" phases=4 bus1="80453805270966.1.2.3.4" bus2="80453795270966.1.2.3.4" linecode="60-71B_4" length=0.034297000 units=km
New "Line.SBT_52876980" phases=4 bus1="80453815270966.1.2.3.4" bus2="80453805270966.1.2.3.4" linecode="60-71B_4" length=0.032738000 units=km
New "Line.SBT_52876982" phases=4 bus1="80453835270966.1.2.3.4" bus2="80453825270966.1.2.3.4" linecode="60-71B_4" length=0.043131000 units=km
New "Line.SBT_52876983" phases=4 bus1="80453845270966.1.2.3.4" bus2="80453835270966.1.2.3.4" linecode="60-71B_4" length=0.029777000 units=km
New "Line.SBT_52876984" phases=4 bus1="80453245270966.1.2.3.4" bus2="80453225270966.1.2.3.4" linecode="43-71B_4" length=0.042032000 units=km
New "Line.SBT_52876986" phases=4 bus1="80453965270966.1.2.3.4" bus2="80453975270966.1.2.3.4" linecode="60-71B_4" length=0.046015000 units=km
New "Line.SBT_52876987" phases=4 bus1="80453975270966.1.2.3.4" bus2="80453985270966.1.2.3.4" linecode="13-71B_4" length=0.036859000 units=km
New "Line.SBT_52876989" phases=4 bus1="80454015270966.1.2.3.4" bus2="80454025270966.1.2.3.4" linecode="13-71B_4" length=0.046568000 units=km
New "Line.SBT_52876991" phases=4 bus1="80454055270966.1.2.3.4" bus2="80454045270966.1.2.3.4" linecode="60-71B_4" length=0.033134000 units=km
New "Line.SBT_52876993" phases=4 bus1="80453565270966.1.2.3.4" bus2="80453845270966.1.2.3.4" linecode="60-71B_4" length=0.039876000 units=km
New "Line.SBT_52877291" phases=4 bus1="80461785270939.1.2.3.4" bus2="80461795270939.1.2.3.4" linecode="43-71B_4" length=0.039774000 units=km
New "Line.SBT_52877301" phases=4 bus1="80463065270940.1.2.3.4" bus2="80463105270940.1.2.3.4" linecode="13-71B_4" length=0.030694000 units=km
New "Line.SBT_52877305" phases=4 bus1="80463075270941.1.2.3.4" bus2="80463145270941.1.2.3.4" linecode="13-71B_4" length=0.007993000 units=km
New "Line.SBT_52877306" phases=4 bus1="80463145270941.1.2.3.4" bus2="80463155270941.1.2.3.4" linecode="13-71B_4" length=0.036928000 units=km
New "Line.SBT_52877307" phases=4 bus1="80463155270941.1.2.3.4" bus2="80463165270941.1.2.3.4" linecode="13-71B_4" length=0.045282000 units=km
New "Line.SBT_52877310" phases=4 bus1="80463145270941.1.2.3.4" bus2="80452765270941.1.2.3.4" linecode="60-71B_4" length=0.009427000 units=km
New "Line.SBT_52877315" phases=4 bus1="80459995270944.1.2.3.4" bus2="80460235270944.1.2.3.4" linecode="64-71B_4" length=0.026763000 units=km
New "Line.SBT_52877316" phases=4 bus1="80460235270944.1.2.3.4" bus2="80460245270944.1.2.3.4" linecode="43-71B_4" length=0.019536000 units=km
New "Line.SBT_52877317" phases=4 bus1="80460245270944.1.2.3.4" bus2="80460255270944.1.2.3.4" linecode="60-71B_4" length=0.016646000 units=km
New "Line.SBT_52877318" phases=4 bus1="80460255270944.1.2.3.4" bus2="80460265270944.1.2.3.4" linecode="60-71B_4" length=0.020705000 units=km
New "Line.SBT_52877320" phases=4 bus1="80460265270944.1.2.3.4" bus2="80462675270944.1.2.3.4" linecode="11-71B_4" length=0.025247000 units=km
New "Line.SBT_52877323" phases=4 bus1="80462655270944.1.2.3.4" bus2="80462645270944.1.2.3.4" linecode="60-71B_4" length=0.038803000 units=km
New "Line.SBT_52877325" phases=4 bus1="80462705270944.1.2.3.4" bus2="80462685270944.1.2.3.4" linecode="60-71B_4" length=0.037320000 units=km
New "Line.SBT_52877328" phases=4 bus1="80462705270944.1.2.3.4" bus2="80462715270944.1.2.3.4" linecode="60-71B_4" length=0.014889000 units=km
New "Line.SBT_52877333" phases=4 bus1="80462775270944.1.2.3.4" bus2="80462765270944.1.2.3.4" linecode="60-71B_4" length=0.018120000 units=km
New "Line.SBT_52877338" phases=4 bus1="80462805270944.1.2.3.4" bus2="80462785270944.1.2.3.4" linecode="60-71B_4" length=0.009427000 units=km
New "Line.SBT_52877351" phases=4 bus1="80460345270945.1.2.3.4" bus2="80460225270945.1.2.3.4" linecode="13-71B_4" length=0.040543000 units=km
New "Line.SBT_52877354" phases=4 bus1="80460365270945.1.2.3.4" bus2="80460355270945.1.2.3.4" linecode="60-71B_4" length=0.024753000 units=km
New "Line.SBT_52877355" phases=4 bus1="80460375270945.1.2.3.4" bus2="80460365270945.1.2.3.4" linecode="60-71B_4" length=0.029865000 units=km
New "Line.SBT_52877356" phases=4 bus1="80460385270945.1.2.3.4" bus2="80460375270945.1.2.3.4" linecode="60-71B_4" length=0.039277000 units=km
New "Line.SBT_52877482" phases=4 bus1="80464415270925.1.2.3.4" bus2="80464395270925.1.2.3.4" linecode="60-71B_4" length=0.047584000 units=km
New "Line.SBT_52877483" phases=4 bus1="80464425270925.1.2.3.4" bus2="80459725270925.1.2.3.4" linecode="60-71B_4" length=0.037483000 units=km
New "Line.SBT_52877486" phases=4 bus1="80464445270925.1.2.3.4" bus2="80464385270925.1.2.3.4" linecode="60-71B_4" length=0.019854000 units=km
New "Line.SBT_52877492" phases=4 bus1="80464345270925.1.2.3.4" bus2="80464315270925.1.2.3.4" linecode="13-71B_4" length=0.027961000 units=km
New "Line.SBT_52877532" phases=4 bus1="80464855270925.1.2.3.4" bus2="80464865270925.1.2.3.4" linecode="60-71B_4" length=0.037455000 units=km
New "Line.SBT_52877539" phases=4 bus1="80464545270926.1.2.3.4" bus2="80464535270926.1.2.3.4" linecode="60-71B_4" length=0.021351000 units=km
New "Line.SBT_52877540" phases=4 bus1="80464555270926.1.2.3.4" bus2="80464545270926.1.2.3.4" linecode="60-71B_4" length=0.014242000 units=km
New "Line.SBT_52877546" phases=4 bus1="80464265270927.1.2.3.4" bus2="80459815270927.1.2.3.4" linecode="46-44B_4" length=0.038299000 units=km
New "Line.SBT_52877548" phases=4 bus1="80464805270927.1.2.3.4" bus2="80464155270927.1.2.3.4" linecode="26-44B_4" length=0.034350000 units=km
New "Line.SBT_52877558" phases=4 bus1="80465725270928.1.2.3.4" bus2="80465055270928.1.2.3.4" linecode="60-71B_4" length=0.034646000 units=km
New "Line.SBT_52877568" phases=4 bus1="80465055270928.1.2.3.4" bus2="80465045270928.1.2.3.4" linecode="60-71B_4" length=0.041436000 units=km
New "Line.SBT_52877583" phases=4 bus1="80464525270929.1.2.3.4" bus2="80464505270929.1.2.3.4" linecode="26-44B_4" length=0.039461000 units=km
New "Line.SBT_52877586" phases=4 bus1="80464605270929.1.2.3.4" bus2="80464595270929.1.2.3.4" linecode="26-44B_4" length=0.021732000 units=km
New "Line.SBT_52877589" phases=4 bus1="80464485270929.1.2.3.4" bus2="80464625270929.1.2.3.4" linecode="26-44B_4" length=0.035670000 units=km
New "Line.SBT_52877593" phases=4 bus1="80464775270929.1.2.3.4" bus2="80464765270929.1.2.3.4" linecode="26-44B_4" length=0.029269000 units=km
New "Line.SBT_52877595" phases=4 bus1="80464785270929.1.2.3.4" bus2="80464685270929.1.2.3.4" linecode="46-44B_4" length=0.032738000 units=km
New "Line.SBT_52877598" phases=4 bus1="80465385270931.1.2.3.4" bus2="80465395270931.1.2.3.4" linecode="13-71B_4" length=0.037034000 units=km
New "Line.SBT_52877599" phases=4 bus1="80465395270931.1.2.3.4" bus2="80465465270931.1.2.3.4" linecode="13-71B_4" length=0.036859000 units=km
New "Line.SBT_52877601" phases=4 bus1="80465475270931.1.2.3.4" bus2="80465485270931.1.2.3.4" linecode="13-71B_4" length=0.022026000 units=km
New "Line.SBT_52877650" phases=4 bus1="80464625270929.1.2.3.4" bus2="80464635270929.1.2.3.4" linecode="26-44B_4" length=0.034297000 units=km
New "Line.SBT_52877652" phases=4 bus1="80464645270929.1.2.3.4" bus2="80464655270929.1.2.3.4" linecode="26-44B_4" length=0.029281000 units=km
New "Line.SBT_52877654" phases=4 bus1="80464675270929.1.2.3.4" bus2="80464665270929.1.2.3.4" linecode="46-44B_4" length=0.045318000 units=km
New "Line.SBT_52877659" phases=4 bus1="80464715270929.1.2.3.4" bus2="80464725270929.1.2.3.4" linecode="26-44B_4" length=0.017857000 units=km
New "Line.SBT_52877663" phases=4 bus1="80465485270931.1.2.3.4" bus2="80463415270931.1.2.3.4" linecode="13-71B_4" length=0.030568000 units=km
New "Line.SBT_52877667" phases=4 bus1="80463565270932.1.2.3.4" bus2="88263065270932.1.2.3.4" linecode="60-71B_4" length=0.027782000 units=km
New "Line.SBT_52877668" phases=4 bus1="80465525270932.1.2.3.4" bus2="80465535270932.1.2.3.4" linecode="60-71B_4" length=0.018746000 units=km
New "Line.SBT_52877669" phases=4 bus1="80465535270932.1.2.3.4" bus2="80465545270932.1.2.3.4" linecode="13-71B_4" length=0.042834000 units=km
New "Line.SBT_52877672" phases=4 bus1="80465565270932.1.2.3.4" bus2="80465575270932.1.2.3.4" linecode="13-71B_4" length=0.040554000 units=km
New "Line.SBT_52877673" phases=4 bus1="80465575270933.1.2.3.4" bus2="80465585270933.1.2.3.4" linecode="13-71B_4" length=0.029269000 units=km
New "Line.SBT_52877676" phases=4 bus1="80465585270933.1.2.3.4" bus2="80465615270933.1.2.3.4" linecode="60-71B_4" length=0.030770000 units=km
New "Line.SBT_52877678" phases=4 bus1="80465635270933.1.2.3.4" bus2="80465645270933.1.2.3.4" linecode="13-71B_4" length=0.037812000 units=km
New "Line.SBT_52877680" phases=4 bus1="80465625270933.1.2.3.4" bus2="83085665270933.1.2.3.4" linecode="13-71B_4" length=0.023005000 units=km
New "Line.SBT_52877681" phases=4 bus1="80463365270933.1.2.3.4" bus2="87519525270933.1.2.3.4" linecode="13-71B_4" length=0.008694000 units=km
New "Line.SBT_52877696" phases=4 bus1="80460025315854.1.2.3.4" bus2="80459925315854.1.2.3.4" linecode="60-71B_4" length=0.035314000 units=km
New "Line.SBT_52877697" phases=4 bus1="80460035315854.1.2.3.4" bus2="80460025315854.1.2.3.4" linecode="60-71B_4" length=0.039921000 units=km
New "Line.SBT_52877698" phases=4 bus1="80460035315854.1.2.3.4" bus2="80460055315854.1.2.3.4" linecode="46-44B_4" length=0.015282000 units=km
New "Line.SBT_52877716" phases=4 bus1="80459945270937.1.2.3.4" bus2="80459955270937.1.2.3.4" linecode="46-44B_4" length=0.041268000 units=km
New "Line.SBT_52877717" phases=4 bus1="80459965270937.1.2.3.4" bus2="80459955270937.1.2.3.4" linecode="60-71B_4" length=0.014315000 units=km
New "Line.SBT_52877718" phases=4 bus1="80459975270937.1.2.3.4" bus2="80459965270937.1.2.3.4" linecode="60-71B_4" length=0.033386000 units=km
New "Line.SBT_52877719" phases=4 bus1="80459955270937.1.2.3.4" bus2="94618205270937.1.2.3.4" linecode="46-44B_4" length=0.014631000 units=km
New "Line.SBT_52877722" phases=4 bus1="80462235270937.1.2.3.4" bus2="80462225270937.1.2.3.4" linecode="60-71B_4" length=0.024306000 units=km
New "Line.SBT_52877725" phases=4 bus1="80462845270937.1.2.3.4" bus2="80462915270937.1.2.3.4" linecode="60-71B_4" length=0.012648000 units=km
New "Line.SBT_52877731" phases=4 bus1="80462945270937.1.2.3.4" bus2="80462935270937.1.2.3.4" linecode="60-71B_4" length=0.038929000 units=km
New "Line.SBT_52877744" phases=4 bus1="80459775270936.1.2.3.4" bus2="80459785270936.1.2.3.4" linecode="46-44B_4" length=0.030677000 units=km
New "Line.SBT_52877745" phases=4 bus1="80459785270936.1.2.3.4" bus2="80459795270936.1.2.3.4" linecode="46-44B_4" length=0.032693000 units=km
New "Line.SBT_52877746" phases=4 bus1="80462955270937.1.2.3.4" bus2="80462245270937.1.2.3.4" linecode="60-71B_4" length=0.022074000 units=km
New "Line.SBT_52877751" phases=4 bus1="80463005270937.1.2.3.4" bus2="80459975270937.1.2.3.4" linecode="60-71B_4" length=0.034601000 units=km
New "Line.SBT_52877755" phases=4 bus1="80463685270938.1.2.3.4" bus2="80462355270938.1.2.3.4" linecode="60-71B_4" length=0.026899000 units=km
New "Line.SBT_52877761" phases=4 bus1="80462355270938.1.2.3.4" bus2="80463045270938.1.2.3.4" linecode="60-71B_4" length=0.030745000 units=km
New "Line.SBT_52877762" phases=4 bus1="80463045270938.1.2.3.4" bus2="80462875270938.1.2.3.4" linecode="60-71B_4" length=0.032775000 units=km
New "Line.SBT_52877763" phases=4 bus1="80462625270939.1.2.3.4" bus2="80462585270939.1.2.3.4" linecode="11-71B_4" length=0.014889000 units=km
New "Line.SBT_52877764" phases=4 bus1="80460275270939.1.2.3.4" bus2="80460285270939.1.2.3.4" linecode="43-71B_4" length=0.031661000 units=km
New "Line.SBT_52877766" phases=4 bus1="80460295270939.1.2.3.4" bus2="80460305270939.1.2.3.4" linecode="11-71B_4" length=0.030187000 units=km
New "Line.SBT_52877773" phases=4 bus1="80460305270939.1.2.3.4" bus2="80462595270939.1.2.3.4" linecode="9-71B_4" length=0.032481000 units=km
New "Line.SBT_52877777" phases=4 bus1="80462615270939.1.2.3.4" bus2="80462635270939.1.2.3.4" linecode="11-71B_4" length=0.028206000 units=km
New "Line.SBT_52877779" phases=4 bus1="80463015270939.1.2.3.4" bus2="80462485270939.1.2.3.4" linecode="11-71B_4" length=0.018430000 units=km
New "Line.SBT_52877780" phases=4 bus1="80460315270939.1.2.3.4" bus2="80461165270939.1.2.3.4" linecode="43-71B_4" length=0.017413000 units=km
New "Line.SBT_52877781" phases=4 bus1="80461165270939.1.2.3.4" bus2="80461175270939.1.2.3.4" linecode="43-71B_4" length=0.018083000 units=km
New "Line.SBT_52877783" phases=4 bus1="80460415270945.1.2.3.4" bus2="80461105270945.1.2.3.4" linecode="60-71B_4" length=0.031807000 units=km
New "Line.SBT_52877784" phases=4 bus1="80461095270945.1.2.3.4" bus2="80461115270945.1.2.3.4" linecode="60-71B_4" length=0.038484000 units=km
New "Line.SBT_52877798" phases=4 bus1="80460745270947.1.2.3.4" bus2="80460735270947.1.2.3.4" linecode="60-71B_4" length=0.011175000 units=km
New "Line.SBT_52877806" phases=4 bus1="80460565270948.1.2.3.4" bus2="80460575270948.1.2.3.4" linecode="13-71B_4" length=0.020451000 units=km
New "Line.SBT_52877811" phases=4 bus1="80460655270948.1.2.3.4" bus2="80460665270948.1.2.3.4" linecode="60-71B_4" length=0.020297000 units=km
New "Line.SBT_52877817" phases=4 bus1="80460715270949.1.2.3.4" bus2="80460705270949.1.2.3.4" linecode="13-71B_4" length=0.018792000 units=km
New "Line.SBT_52877818" phases=4 bus1="80460725270949.1.2.3.4" bus2="80460715270949.1.2.3.4" linecode="13-71B_4" length=0.010225000 units=km
New "Line.SBT_52877828" phases=4 bus1="80461225270951.1.2.3.4" bus2="80461215270951.1.2.3.4" linecode="60-71B_4" length=0.028951000 units=km
New "Line.SBT_52877829" phases=4 bus1="80461215270951.1.2.3.4" bus2="80461205270951.1.2.3.4" linecode="60-71B_4" length=0.019428000 units=km
New "Line.SBT_52877833" phases=4 bus1="80462285270938.1.2.3.4" bus2="80462275270938.1.2.3.4" linecode="13-71B_4" length=0.033744000 units=km
New "Line.SBT_52877836" phases=4 bus1="80462305270938.1.2.3.4" bus2="80462325270938.1.2.3.4" linecode="60-71B_4" length=0.033493000 units=km
New "Line.SBT_52877843" phases=4 bus1="80461045270946.1.2.3.4" bus2="80461055270946.1.2.3.4" linecode="60-71B_4" length=0.034780000 units=km
New "Line.SBT_52877844" phases=4 bus1="80461055270946.1.2.3.4" bus2="80461065270946.1.2.3.4" linecode="60-71B_4" length=0.037702000 units=km
New "Line.SBT_52877847" phases=4 bus1="80461065270946.1.2.3.4" bus2="80461085270946.1.2.3.4" linecode="60-71B_4" length=0.031108000 units=km
New "Line.SBT_52877853" phases=4 bus1="80460135270947.1.2.3.4" bus2="80460485270947.1.2.3.4" linecode="60-71B_4" length=0.036097000 units=km
New "Line.SBT_52877854" phases=4 bus1="80461235270951.1.2.3.4" bus2="80461225270951.1.2.3.4" linecode="60-71B_4" length=0.029246000 units=km
New "Line.SBT_52877857" phases=4 bus1="80461275270951.1.2.3.4" bus2="80461265270951.1.2.3.4" linecode="60-71B_4" length=0.014533000 units=km
New "Line.SBT_52877862" phases=4 bus1="80461315270951.1.2.3.4" bus2="80461305270951.1.2.3.4" linecode="13-71B_4" length=0.030403000 units=km
New "Line.SBT_52877865" phases=4 bus1="80461325270951.1.2.3.4" bus2="80461335270951.1.2.3.4" linecode="60-71B_4" length=0.015939000 units=km
New "Line.SBT_52877869" phases=4 bus1="80451135270951.1.2.3.4" bus2="80461365270951.1.2.3.4" linecode="60-71B_4" length=0.042715000 units=km
New "Line.SBT_52877870" phases=4 bus1="80461355270951.1.2.3.4" bus2="80461375270951.1.2.3.4" linecode="60-71B_4" length=0.023815000 units=km
New "Line.SBT_52877873" phases=4 bus1="80461405270951.1.2.3.4" bus2="80461395270951.1.2.3.4" linecode="60-71B_4" length=0.021740000 units=km
New "Line.SBT_52877874" phases=4 bus1="80461415270951.1.2.3.4" bus2="80461405270951.1.2.3.4" linecode="60-71B_4" length=0.020115000 units=km
New "Line.SBT_52877885" phases=4 bus1="80453055270951.1.2.3.4" bus2="80453035270951.1.2.3.4" linecode="60-71B_4" length=0.032092000 units=km
New "Line.SBT_52877888" phases=4 bus1="80451145270951.1.2.3.4" bus2="80453085270951.1.2.3.4" linecode="60-71B_4" length=0.041969000 units=km
New "Line.SBT_52877900" phases=4 bus1="80461555270952.1.2.3.4" bus2="80461635270952.1.2.3.4" linecode="46-44B_4" length=0.031666000 units=km
New "Line.SBT_52877904" phases=4 bus1="80462025270952.1.2.3.4" bus2="80461755270952.1.2.3.4" linecode="26-44B_4" length=0.035905000 units=km
New "Line.SBT_52877924" phases=4 bus1="80465875270954.1.2.3.4" bus2="80462315270954.1.2.3.4" linecode="60-71B_4" length=0.034977000 units=km
New "Line.SBT_52877926" phases=4 bus1="80461605270951.1.2.3.4" bus2="80461585270951.1.2.3.4" linecode="60-71B_4" length=0.020179000 units=km
New "Line.SBT_52877927" phases=4 bus1="80461265270951.1.2.3.4" bus2="80461605270951.1.2.3.4" linecode="60-71B_4" length=0.021080000 units=km
New "Line.SBT_52877930" phases=4 bus1="80461375715773.1.2.3.4" bus2="80461625715773.1.2.3.4" linecode="46-44B_4" length=0.037446000 units=km
New "Line.SBT_52877932" phases=4 bus1="80461645270951.1.2.3.4" bus2="80461655270951.1.2.3.4" linecode="60-71B_4" length=0.039819000 units=km
New "Line.SBT_52877937" phases=4 bus1="80461885270951.1.2.3.4" bus2="80461895270951.1.2.3.4" linecode="60-71B_4" length=0.052149000 units=km
New "Line.SBT_52877938" phases=4 bus1="80461765270952.1.2.3.4" bus2="80461745270952.1.2.3.4" linecode="26-44B_4" length=0.045833000 units=km
New "Line.SBT_52877946" phases=4 bus1="80461965270952.1.2.3.4" bus2="80461975270952.1.2.3.4" linecode="46-44B_4" length=0.033285000 units=km
New "Line.SBT_52877962" phases=4 bus1="80452855270954.1.2.3.4" bus2="80452865270954.1.2.3.4" linecode="13-71B_4" length=0.016765000 units=km
New "Line.SBT_52877963" phases=4 bus1="80452865270954.1.2.3.4" bus2="80452875270954.1.2.3.4" linecode="60-71B_4" length=0.035302000 units=km
New "Line.SBT_52877964" phases=4 bus1="80452885270954.1.2.3.4" bus2="80462315270954.1.2.3.4" linecode="60-71B_4" length=0.043719000 units=km
New "Line.SBT_52877971" phases=4 bus1="80464145270954.1.2.3.4" bus2="80463345270954.1.2.3.4" linecode="60-71B_4" length=0.035496000 units=km
New "Line.SBT_52877974" phases=4 bus1="80452995270955.1.2.3.4" bus2="80452985270955.1.2.3.4" linecode="45-44B_4" length=0.019021000 units=km
New "Line.SBT_52877980" phases=4 bus1="80462395270955.1.2.3.4" bus2="80462435270955.1.2.3.4" linecode="45-44B_4" length=0.031284000 units=km
New "Line.SBT_52877982" phases=4 bus1="80462455270955.1.2.3.4" bus2="80462465270955.1.2.3.4" linecode="45-44B_4" length=0.022444000 units=km
New "Line.SBT_52877986" phases=4 bus1="80463305270955.1.2.3.4" bus2="80452985270955.1.2.3.4" linecode="45-44B_4" length=0.026527000 units=km
New "Line.SBT_52877991" phases=4 bus1="80453005270956.1.2.3.4" bus2="80452995270956.1.2.3.4" linecode="13-71B_4" length=0.018783000 units=km
New "Line.SBT_52877993" phases=4 bus1="80462505270956.1.2.3.4" bus2="80462495270956.1.2.3.4" linecode="60-71B_4" length=0.021692000 units=km
New "Line.SBT_52877994" phases=4 bus1="80462485270956.1.2.3.4" bus2="80462505270956.1.2.3.4" linecode="60-71B_4" length=0.017022000 units=km
New "Line.SBT_52877996" phases=4 bus1="80462505270956.1.2.3.4" bus2="80462515270956.1.2.3.4" linecode="60-71B_4" length=0.023872000 units=km
New "Line.SBT_52877997" phases=4 bus1="80462515270956.1.2.3.4" bus2="80462525270956.1.2.3.4" linecode="60-71B_4" length=0.051939000 units=km
New "Line.SBT_52877998" phases=4 bus1="80463275270956.1.2.3.4" bus2="80463265270956.1.2.3.4" linecode="60-71B_4" length=0.032487000 units=km
New "Line.SBT_52878002" phases=4 bus1="80465795270957.1.2.3.4" bus2="80465785270957.1.2.3.4" linecode="13-71B_4" length=0.041216000 units=km
New "Line.SBT_52878009" phases=4 bus1="80463185270941.1.2.3.4" bus2="80463205270941.1.2.3.4" linecode="60-71B_4" length=0.028132000 units=km
New "Line.SBT_52878026" phases=4 bus1="80452935270955.1.2.3.4" bus2="80452925270955.1.2.3.4" linecode="46-44B_4" length=0.018793000 units=km
New "Line.SBT_52878029" phases=4 bus1="80452965270955.1.2.3.4" bus2="80452945270955.1.2.3.4" linecode="46-44B_4" length=0.020856000 units=km
New "Line.SBT_52878033" phases=4 bus1="80463295270955.1.2.3.4" bus2="80463305270955.1.2.3.4" linecode="45-44B_4" length=0.027073000 units=km
New "Line.SBT_52878037" phases=4 bus1="80452835270956.1.2.3.4" bus2="80452795270956.1.2.3.4" linecode="60-71B_4" length=0.034485000 units=km
New "Line.SBT_52878042" phases=4 bus1="80463245270956.1.2.3.4" bus2="80463225270956.1.2.3.4" linecode="13-71B_4" length=0.040710000 units=km
New "Line.SBT_52878043" phases=4 bus1="80452785270956.1.2.3.4" bus2="80463245270956.1.2.3.4" linecode="13-71B_4" length=0.033119000 units=km
New "Line.SBT_52878044" phases=4 bus1="80463255270956.1.2.3.4" bus2="80463235270956.1.2.3.4" linecode="60-71B_4" length=0.036498000 units=km
New "Line.SBT_52878045" phases=4 bus1="80463265270956.1.2.3.4" bus2="80463255270956.1.2.3.4" linecode="60-71B_4" length=0.032286000 units=km
New "Line.SBT_52878531" phases=4 bus1="80466405494206.1.2.3.4" bus2="80466395494206.1.2.3.4" linecode="45-44B_4" length=0.020078000 units=km
New "Line.SBT_52878534" phases=4 bus1="80466435494206.1.2.3.4" bus2="80466425494206.1.2.3.4" linecode="45-44B_4" length=0.030294000 units=km
New "Line.SBT_52878535" phases=4 bus1="80466425494206.1.2.3.4" bus2="80466445494206.1.2.3.4" linecode="46-44B_4" length=0.022045000 units=km
New "Line.SBT_52878560" phases=4 bus1="80466765494206.1.2.3.4" bus2="80466755494206.1.2.3.4" linecode="45-44B_4" length=0.037925000 units=km
New "Line.SBT_52881438" phases=4 bus1="79508865271417.1.2.3.4" bus2="80490595271417.1.2.3.4" linecode="60-71B_4" length=0.023781000 units=km
New "Line.SBT_52881439" phases=4 bus1="80490605271417.1.2.3.4" bus2="80490595271417.1.2.3.4" linecode="11-71B_4" length=0.018284000 units=km
New "Line.SBT_52881483" phases=4 bus1="80485015271419.1.2.3.4" bus2="95424625271419.1.2.3.4" linecode="45-44B_4" length=0.008119000 units=km
New "Line.SBT_52881484" phases=4 bus1="80484995271419.1.2.3.4" bus2="80485025271419.1.2.3.4" linecode="60-71B_4" length=0.037725000 units=km
New "Line.SBT_52881485" phases=4 bus1="80485035271419.1.2.3.4" bus2="80466385271419.1.2.3.4" linecode="60-71B_4" length=0.035553000 units=km
New "Line.SBT_52881488" phases=4 bus1="80485315271419.1.2.3.4" bus2="80485305271419.1.2.3.4" linecode="13-71B_4" length=0.034044000 units=km
New "Line.SBT_52881491" phases=4 bus1="80485025271419.1.2.3.4" bus2="80485335271419.1.2.3.4" linecode="13-71B_4" length=0.020304000 units=km
New "Line.SBT_52881492" phases=4 bus1="80485335271419.1.2.3.4" bus2="80485355271419.1.2.3.4" linecode="60-71B_4" length=0.010474000 units=km
New "Line.SBT_52881494" phases=4 bus1="80485355271419.1.2.3.4" bus2="80485365271419.1.2.3.4" linecode="60-71B_4" length=0.039827000 units=km
New "Line.SBT_52881499" phases=4 bus1="80485415271419.1.2.3.4" bus2="80485405271419.1.2.3.4" linecode="60-71B_4" length=0.036939000 units=km
New "Line.SBT_52881502" phases=4 bus1="80485445271419.1.2.3.4" bus2="80485435271419.1.2.3.4" linecode="60-71B_4" length=0.040145000 units=km
New "Line.SBT_52881504" phases=4 bus1="80485425271419.1.2.3.4" bus2="80485455271419.1.2.3.4" linecode="60-71B_4" length=0.023460000 units=km
New "Line.SBT_52881506" phases=4 bus1="80485465271419.1.2.3.4" bus2="80485475271419.1.2.3.4" linecode="60-71B_4" length=0.032731000 units=km
New "Line.SBT_52881507" phases=4 bus1="80485475271419.1.2.3.4" bus2="80485485271419.1.2.3.4" linecode="60-71B_4" length=0.047470000 units=km
New "Line.SBT_52881512" phases=4 bus1="80466795271419.1.2.3.4" bus2="80466785271419.1.2.3.4" linecode="60-71B_4" length=0.033815000 units=km
New "Line.SBT_52881513" phases=2 bus1="80466785271419.1.4" bus2="80466775271419.1.4" linecode="60-71B_2" length=0.034948000 units=km
New "Line.SBT_52881534" phases=4 bus1="80487505271421.1.2.3.4" bus2="80487515271421.1.2.3.4" linecode="26-44B_4" length=0.034601000 units=km
New "Line.SBT_52881541" phases=4 bus1="80489165271421.1.2.3.4" bus2="80489155271421.1.2.3.4" linecode="46-44B_4" length=0.037071000 units=km
New "Line.SBT_52881543" phases=4 bus1="80489185271421.1.2.3.4" bus2="80489175271421.1.2.3.4" linecode="46-44B_4" length=0.031815000 units=km
New "Line.SBT_52881544" phases=4 bus1="80489185271421.1.2.3.4" bus2="80489195271421.1.2.3.4" linecode="26-44B_4" length=0.017050000 units=km
New "Line.SBT_52881545" phases=4 bus1="80489715271421.1.2.3.4" bus2="80489725271421.1.2.3.4" linecode="26-44B_4" length=0.020540000 units=km
New "Line.SBT_52881548" phases=4 bus1="80490415271425.1.2.3.4" bus2="80490425271425.1.2.3.4" linecode="45-44B_4" length=0.030399000 units=km
New "Line.SBT_52881549" phases=4 bus1="80490425271425.1.2.3.4" bus2="80490435271425.1.2.3.4" linecode="45-44B_4" length=0.032326000 units=km
New "Line.SBT_52881551" phases=4 bus1="80490435271425.1.2.3.4" bus2="80490445271425.1.2.3.4" linecode="45-44B_4" length=0.008354000 units=km
New "Line.SBT_52881554" phases=4 bus1="80490255271426.1.2.3.4" bus2="80490265271426.1.2.3.4" linecode="60-71B_4" length=0.026210000 units=km
New "Line.SBT_52881555" phases=4 bus1="80490275271426.1.2.3.4" bus2="80490255271426.1.2.3.4" linecode="60-71B_4" length=0.028187000 units=km
New "Line.SBT_52881557" phases=4 bus1="80490285271426.1.2.3.4" bus2="80490295271426.1.2.3.4" linecode="60-71B_4" length=0.041407000 units=km
New "Line.SBT_52881558" phases=4 bus1="80490295271426.1.2.3.4" bus2="80490305271426.1.2.3.4" linecode="60-71B_4" length=0.030762000 units=km
New "Line.SBT_52881561" phases=4 bus1="80490325271426.1.2.3.4" bus2="80490335271426.1.2.3.4" linecode="13-71B_4" length=0.028444000 units=km
New "Line.SBT_52881562" phases=4 bus1="80490355271426.1.2.3.4" bus2="80490325271426.1.2.3.4" linecode="13-71B_4" length=0.027745000 units=km
New "Line.SBT_52881571" phases=4 bus1="80491245271426.1.2.3.4" bus2="79508975271426.1.2.3.4" linecode="60-71B_4" length=0.033902000 units=km
...

New "Line.SBT_52876939" phases=4 bus1="80453195270965.1.2.3.4" bus2="80453185270965.1.2.3.4" linecode="13-71B_4" length=0.014639000 units=km
New "Line.SBT_52876942" phases=4 bus1="80453225270965.1.2.3.4" bus2="80453215270965.1.2.3.4" linecode="11-71B_4" length=0.020869000 units=km
New "Line.SBT_52876943" phases=4 bus1="80453525679403.1.2.3.4" bus2="80453535679403.1.2.3.4" linecode="45-44B_4" length=0.010381000 units=km
New "Line.SBT_52876969" phases=4 bus1="80453875270965.1.2.3.4" bus2="80453885270965.1.2.3.4" linecode="60-71B_4" length=0.032395000 units=km
New "Line.SBT_52876971" phases=4 bus1="80453895679403.1.2.3.4" bus2="80453645679403.1.2.3.4" linecode="60-71B_4" length=0.026743000 units=km
New "Line.SBT_52876976" phases=4 bus1="80453235270966.1.2.3.4" bus2="80453225270966.1.2.3.4" linecode="60-71B_4" length=0.013718000 units=km
New "Line.SBT_52876981" phases=4 bus1="80453825270966.1.2.3.4" bus2="80453815270966.1.2.3.4" linecode="60-71B_4" length=0.030092000 units=km
New "Line.SBT_52876985" phases=4 bus1="80453245270966.1.2.3.4" bus2="80453965270966.1.2.3.4" linecode="60-71B_4" length=0.038706000 units=km
New "Line.SBT_52876988" phases=4 bus1="80453985270966.1.2.3.4" bus2="80454015270966.1.2.3.4" linecode="13-71B_4" length=0.040180000 units=km
New "Line.SBT_52877295" phases=4 bus1="80466045270939.1.2.3.4" bus2="80461175270939.1.2.3.4" linecode="43-71B_4" length=0.026833000 units=km
New "Line.SBT_52877299" phases=4 bus1="80463095270940.1.2.3.4" bus2="80463085270940.1.2.3.4" linecode="13-71B_4" length=0.020245000 units=km
New "Line.SBT_52877340" phases=4 bus1="80460045270945.1.2.3.4" bus2="80460035270945.1.2.3.4" linecode="13-71B_4" length=0.021927000 units=km
New "Line.SBT_52877345" phases=4 bus1="80460185270945.1.2.3.4" bus2="80460195270945.1.2.3.4" linecode="60-71B_4" length=0.028727000 units=km
New "Line.SBT_52877348" phases=4 bus1="80460215270945.1.2.3.4" bus2="80460225270945.1.2.3.4" linecode="60-71B_4" length=0.012716000 units=km
New "Line.SBT_52877476" phases=4 bus1="80464315270925.1.2.3.4" bus2="80464285270925.1.2.3.4" linecode="13-71B_4" length=0.041119000 units=km
New "Line.SBT_52877485" phases=4 bus1="80464395270925.1.2.3.4" bus2="80464405270925.1.2.3.4" linecode="60-71B_4" length=0.030683000 units=km
New "Line.SBT_52877505" phases=4 bus1="80459815270927.1.2.3.4" bus2="80459805270927.1.2.3.4" linecode="46-44B_4" length=0.050439000 units=km
...